@<TRIPOS>MOLECULE
MOL
    9     8     1     0     0
SMALL
bcc


@<TRIPOS>ATOM
      1 C1           0.8820    -0.0450    -0.0150 c3         1 MOL      -0.136100
      2 C2          -0.5820    -0.3760     0.0510 c3         1 MOL       0.126400
      3 O1          -1.3500     0.7580     0.1760 oh         1 MOL      -0.599800
      4 H1           1.2650     0.1740     1.0120 hc         1 MOL       0.042367
      5 H2           1.0160     0.8710    -0.6090 hc         1 MOL       0.042367
      6 H3           1.4760    -0.8950    -0.3920 hc         1 MOL       0.042367
      7 H4          -0.7850    -0.9970     0.9680 h1         1 MOL       0.043200
      8 H5          -0.8360    -1.0040    -0.8160 h1         1 MOL       0.043200
      9 H6          -1.0870     1.5130    -0.3760 ho         1 MOL       0.396000
@<TRIPOS>BOND
     1     1     2 1   
     2     1     4 1   
     3     1     5 1   
     4     1     6 1   
     5     2     3 1   
     6     2     7 1   
     7     2     8 1   
     8     3     9 1   
@<TRIPOS>SUBSTRUCTURE
     1 MOL         1 TEMP              0 ****  ****    0 ROOT
